#Put Keywords Here, check Charge and Multiplicity.

 hept_p84

0  1
C          -0.67190         4.63240         0.65440
C          -1.02860         3.27060         0.05040
C          -1.80640         2.37580         1.02310
C          -2.13120         0.98980         0.45500
C          -2.76640         0.04270         1.47930
C          -3.01610        -1.36590         0.92860
C          -3.60010        -2.32700         1.96730
O          -0.32880        -5.50140         2.92370
C          -0.56370        -4.98740         1.83710
C          -0.05030        -3.60060         1.55670
C           0.39880        -3.21050         0.28310
C           0.89680        -1.92410         0.04780
C           0.91530        -1.04610         1.11840
C           1.33380         0.38110         1.16870
N           1.14740         0.79200         2.51100
C           1.41430         2.10810         2.98980
C           2.50570         2.82300         2.48380
C           2.74630         4.11880         2.93480
C           1.91910         4.70010         3.89560
C           0.83970         3.97720         4.40270
C           0.57680         2.68610         3.95080
C           0.62310        -0.26480         3.30480
O           0.34090        -0.20230         4.48140
O           1.73970         1.06760         0.25370
C           0.48830        -1.43080         2.38740
C           0.01770        -2.70540         2.63930
C          -1.36230        -5.71220         0.80160
C          -1.41660        -7.11220         0.88210
C          -2.18060        -7.83910        -0.02370
C          -2.91960        -7.17440        -1.00700
C          -2.89010        -5.78170        -1.08070
C          -2.10990        -5.05150        -0.18560
H          -1.57190         5.17970         0.96050
H          -0.03710         4.51300         1.53900
H          -0.12990         5.25780        -0.06290
H          -1.61910         3.41080        -0.86600
H          -0.10720         2.75560        -0.24820
H          -2.73790         2.87630         1.32440
H          -1.21860         2.26050         1.94260
H          -2.79910         1.09330        -0.41210
H          -1.21060         0.53430         0.06500
H          -2.11500        -0.02990         2.36240
H          -3.71230         0.46990         1.84130
H          -3.68680        -1.30330         0.06050
H          -2.06550        -1.76480         0.55260
H          -3.75660        -3.32750         1.55120
H          -4.56460        -1.96640         2.34210
H          -2.92880        -2.42680         2.82740
H           0.36120        -3.92550        -0.53100
H           1.24450        -1.61440        -0.93170
H           3.14500         2.37650         1.73390
H           3.58870         4.67280         2.53200
H           2.11350         5.70940         4.24520
H           0.18840         4.42020         5.14970
H          -0.26180         2.12760         4.34420
H          -0.30310        -3.01520         3.62730
H          -0.85240        -7.60650         1.66610
H          -2.20780        -8.92300         0.03710
H          -3.52220        -7.74250        -1.70990
H          -3.47680        -5.26210        -1.83220
H          -2.10700        -3.96920        -0.23830

1 2 1.0 33 1.0 34 1.0 35 1.0 
2 3 1.0 36 1.0 37 1.0 
3 4 1.0 38 1.0 39 1.0 
4 5 1.0 40 1.0 41 1.0 
5 6 1.0 42 1.0 43 1.0 
6 7 1.0 44 1.0 45 1.0 
7 46 1.0 47 1.0 48 1.0 
8 9 2.0 
9 10 1.0 27 1.0 
10 26 1.0 11 2.0 
11 12 1.0 49 1.0 
12 13 2.0 50 1.0 
13 14 1.0 25 1.0 
14 15 1.0 24 2.0 
15 16 1.0 22 1.0 
16 21 1.0 17 2.0 
17 18 1.0 51 1.0 
18 19 2.0 52 1.0 
19 20 1.0 53 1.0 
20 21 2.0 54 1.0 
21 55 1.0 
22 25 1.0 23 2.0 
23 
24 
25 26 2.0 
26 56 1.0 
27 32 1.0 28 2.0 
28 29 1.0 57 1.0 
29 30 2.0 58 1.0 
30 31 1.0 59 1.0 
31 32 2.0 60 1.0 
32 61 1.0 
33 
34 
35 
36 
37 
38 
39 
40 
41 
42 
43 
44 
45 
46 
47 
48 
49 
50 
51 
52 
53 
54 
55 
56 
57 
58 
59 
60 
61 
