#Put Keywords Here, check Charge and Multiplicity.

 2

0  1
C           2.81890        -3.34300         0.46580
N           2.39010        -2.05590        -0.02630
C           1.08900        -1.59910         0.03230
C           0.03510        -2.33700         0.57460
C          -1.27050        -1.82580         0.60810
C          -1.56650        -0.55820         0.09650
N          -2.88260        -0.07540         0.18390
C          -3.40270         1.22790         0.24210
C          -2.67240         2.32010         0.71520
C          -3.22010         3.61030         0.72230
C          -4.51460         3.84810         0.25580
N          -5.09170         5.12800         0.21090
C          -4.52610         6.41190         0.13990
C          -3.25820         6.65930        -0.39040
C          -2.71910         7.95310        -0.40710
C          -3.43150         9.03920         0.10550
N          -2.91730        10.34570         0.14220
C          -1.60180        10.83740         0.16460
C          -0.51820        10.09970         0.64320
C           0.78430        10.62050         0.61570
C           1.04870        11.89150         0.10110
N           2.31110        12.44740         0.05100
C           3.50450        11.78470         0.51970
C          -0.03890        12.62580        -0.38270
C          -1.34140        12.10940        -0.35400
C          -4.69890         8.79140         0.64440
C          -5.23770         7.49830         0.66140
C          -5.24420         2.75570        -0.22690
C          -4.69700         1.46610        -0.23350
C          -0.51460         0.18420        -0.44060
C           0.78880        -0.33070        -0.47530
H           3.89460        -3.45880         0.29960
H           2.63700        -3.43610         1.54130
H           2.31180        -4.15730        -0.06170
H           3.09230        -1.45210        -0.43590
H           0.20580        -3.32600         0.98860
H          -2.05430        -2.43200         1.05460
H          -3.58670        -0.80350         0.20960
H          -1.67480         2.17970         1.12250
H          -2.62610         4.42100         1.13530
H          -6.10470         5.12480         0.23610
H          -2.68060         5.85350        -0.83490
H          -1.74430         8.10120        -0.86380
H          -3.62660        11.06910         0.15490
H          -0.67200         9.11650         1.07890
H           1.58520        10.00440         1.01250
H           2.41300        13.37440        -0.34300
H           4.36990        12.43690         0.36580
H           3.44070        11.56490         1.59030
H           3.68530        10.85710        -0.03290
H           0.11680        13.61850        -0.79710
H          -2.15010        12.71350        -0.75640
H          -5.27750         9.60380         1.07650
H          -6.21780         7.34740         1.10620
H          -6.24630         2.89910        -0.62250
H          -5.29120         0.64880        -0.63390
H          -0.69610         1.16400        -0.87290
H           1.57400         0.27970        -0.91390


