#Put Keywords Here, check Charge and Multiplicity.

 1

0  1
C           2.39650        -3.82000        -0.87030
N           2.17490        -2.45030        -0.47360
C           0.93220        -1.91420        -0.20320
C          -0.25670        -2.64200        -0.28210
C          -1.49450        -2.04830         0.00520
C          -1.58420        -0.70500         0.38470
N          -2.84970        -0.14670         0.62940
C          -3.32890         1.17050         0.54110
C          -2.75280         2.13870        -0.28390
C          -3.24270         3.45170        -0.31260
C          -4.32360         3.83690         0.48310
N          -4.82550         5.14850         0.51420
C          -4.23130         6.38920         0.22990
C          -2.85590         6.61490         0.31580
C          -2.30410         7.86200        -0.00850
C          -3.10900         8.91690        -0.44370
N          -2.60500        10.19180        -0.74890
C          -1.45530        10.87550        -0.32040
C          -0.81160        10.60610         0.88810
C           0.35440        11.29260         1.25920
C           0.92060        12.26470         0.43180
N           2.06600        12.96580         0.75090
C           2.81540        12.77620         1.96970
C           0.27570        12.52860        -0.78090
C          -0.89040        11.84630        -1.15310
C          -4.48720         8.69120        -0.53250
C          -5.03920         7.44640        -0.20400
C          -4.89670         2.86960         1.31650
C          -4.40720         1.55740         1.34500
C          -0.39880         0.02650         0.45870
C           0.83720        -0.57040         0.17350
H           3.46730        -3.98840        -1.02270
H           2.05780        -4.51610        -0.09620
H           1.88730        -4.04650        -1.81250
H           2.98480        -1.84790        -0.39320
H          -0.24860        -3.68770        -0.57360
H          -2.39350        -2.65210        -0.08540
H          -3.54570        -0.82090         0.92560
H          -1.93360         1.87800        -0.94860
H          -2.78430         4.15890        -0.99860
H          -5.79670         5.21190         0.79610
H          -2.18970         5.83100         0.66530
H          -1.22640         7.98320         0.05800
H          -3.17520        10.71600        -1.40220
H          -1.22500         9.87870         1.58110
H           0.80410        11.04750         2.21640
H           2.40920        13.65230         0.09070
H           3.67750        13.45060         1.97790
H           2.20560        13.00620         2.84920
H           3.19430        11.75200         2.04610
H           0.68060        13.27370        -1.46070
H          -1.34460        12.07680        -2.11300
H          -5.15220         9.48920        -0.85250
H          -6.11320         7.31030        -0.30000
H          -5.72410         3.13200         1.97060
H          -4.86970         0.84210         2.02010
H          -0.41130         1.06640         0.77240
H           1.73520         0.03660         0.25510


