%chk=10_out.chk
%CPU=0-53
%mem=4GB
# opt M062X/6-31+G(d,p) geom=connectivity integral=ultrafine

 acet_p84

0  1
C           1.64650        -1.37760         1.15240
C           1.72560        -0.78090        -0.23910
C           0.71450        -1.27070        -1.25630
O           2.55410         0.06630        -0.52600
O          -3.22260        -0.04180         2.63100
C          -3.11840        -0.10000         1.41190
C          -2.07490         0.73410         0.72020
C          -2.27430         1.27140        -0.56500
C          -1.30620         2.07620        -1.17720
C          -0.13530         2.30770        -0.47590
C           1.08540         3.06590        -0.87720
N           1.97070         2.96400         0.21730
C           3.30880         3.45380         0.20030
C           4.35820         2.59430         0.53290
C           5.66240         3.08330         0.52460
C           5.91840         4.40890         0.16990
C           4.86290         5.25240        -0.17910
C           3.55190         4.78040        -0.15910
C           1.43020         2.18530         1.26170
O           1.98120         1.89700         2.30260
O           1.29260         3.65590        -1.91520
C           0.06530         1.79020         0.80280
C          -0.89410         1.01960         1.43180
C          -4.01040        -0.99620         0.61170
C          -5.26080        -1.32890         1.15470
C          -6.11860        -2.18450         0.47220
C          -5.72790        -2.73900        -0.75000
C          -4.47580        -2.43580        -1.28530
C          -3.62250        -1.56340        -0.61200
H           2.22890        -2.30730         1.16900
H           0.61790        -1.63020         1.42570
H           2.07000        -0.68050         1.87710
H           0.62140        -2.36170        -1.23480
H           0.99050        -0.92840        -2.25450
H          -0.26480        -0.85400        -0.99070
H          -3.20320         1.06540        -1.08560
H          -1.45390         2.49700        -2.16610
H           4.14090         1.56040         0.76860
H           6.48270         2.42120         0.78520
H           6.93830         4.78230         0.16000
H           5.05760         6.28210        -0.46330
H           2.72310         5.42430        -0.42980
H          -0.75110         0.62990         2.43330
H          -5.53720        -0.90270         2.11340
H          -7.09090        -2.42480         0.89160
H          -6.39650        -3.41050        -1.28070
H          -4.16260        -2.87860        -2.22600
H          -2.64580        -1.34420        -1.02900

1 2 1.0 30 1.0 31 1.0 32 1.0 
2 3 1.0 4 2.0 
3 33 1.0 34 1.0 35 1.0 
4 
5 6 2.0 
6 7 1.0 24 1.0 
7 23 1.0 8 2.0 
8 9 1.0 36 1.0 
9 10 2.0 37 1.0 
10 11 1.0 22 1.0 
11 12 1.0 21 2.0 
12 13 1.0 19 1.0 
13 18 1.0 14 2.0 
14 15 1.0 38 1.0 
15 16 2.0 39 1.0 
16 17 1.0 40 1.0 
17 18 2.0 41 1.0 
18 42 1.0 
19 22 1.0 20 2.0 
20 
21 
22 23 2.0 
23 43 1.0 
24 29 1.0 25 2.0 
25 26 1.0 44 1.0 
26 27 2.0 45 1.0 
27 28 1.0 46 1.0 
28 29 2.0 47 1.0 
29 48 1.0 
30 
31 
32 
33 
34 
35 
36 
37 
38 
39 
40 
41 
42 
43 
44 
45 
46 
47 
48 
