#Put Keywords Here, check Charge and Multiplicity.

 methf_p84

0  1
C           1.16290         4.48550         0.95190
C           1.27310         3.04950         0.47670
C           0.41290         2.00940         1.22070
C           0.20740         0.89490         0.16120
C           0.74360         1.54210        -1.14250
O           0.81770         2.94290        -0.88100
O          -5.12510        -1.14740         0.52500
C          -4.32200        -0.34400         0.98420
C          -3.69500         0.67930         0.07710
C          -3.46390         0.30760        -1.26050
C          -2.86260         1.18220        -2.16880
C          -2.52530         2.44590        -1.70700
C          -1.82310         3.56700        -2.39860
N          -1.75580         4.61520        -1.45140
C          -1.05580         5.83830        -1.65820
C           0.20270         5.82170        -2.26580
C           0.88020         7.02410        -2.45470
C           0.31920         8.22860        -2.02650
C          -0.93120         8.23080        -1.40770
C          -1.62750         7.03730        -1.22710
C          -2.29930         4.22720        -0.21040
O          -2.32380         4.89570         0.80370
O          -1.38680         3.59110        -3.52860
C          -2.79610         2.83700        -0.39990
C          -3.37450         1.97610         0.51640
C          -3.94350        -0.37740         2.43070
C          -4.84800        -0.96430         3.32890
C          -4.53490        -1.05860         4.68010
C          -3.30420        -0.58790         5.14720
C          -2.38800        -0.02620         4.25780
C          -2.70580         0.08400         2.90540
H           1.57980         4.57450         1.96030
H           1.72010         5.15130         0.28750
H           0.12370         4.81940         0.97840
H           2.33110         2.73090         0.51310
H          -0.54190         2.46770         1.49910
H           0.89370         1.65170         2.13590
H          -0.84630         0.62540         0.06070
H           0.75830        -0.01760         0.40580
H           0.09880         1.39710        -2.01170
H           1.74500         1.15260        -1.38580
H          -3.75640        -0.69200        -1.56430
H          -2.65300         0.89020        -3.19240
H           0.64180         4.87610        -2.55470
H           1.85750         7.01630        -2.92820
H           0.85660         9.16130        -2.17030
H          -1.37080         9.16330        -1.06680
H          -2.59720         7.02720        -0.74360
H          -3.56400         2.29840         1.53400
H          -5.78970        -1.33930         2.94200
H          -5.24570        -1.50130         5.37140
H          -3.05870        -0.66480         6.20250
H          -1.42490         0.32580         4.61500
H          -1.97910         0.50440         2.21990

1 2 1.0 32 1.0 33 1.0 34 1.0 
2 6 1.0 3 1.0 35 1.0 
3 4 1.0 36 1.0 37 1.0 
4 5 1.0 38 1.0 39 1.0 
5 6 1.0 40 1.0 41 1.0 
6 
7 8 2.0 
8 9 1.0 26 1.0 
9 25 1.0 10 2.0 
10 11 1.0 42 1.0 
11 12 2.0 43 1.0 
12 13 1.0 24 1.0 
13 14 1.0 23 2.0 
14 15 1.0 21 1.0 
15 20 1.0 16 2.0 
16 17 1.0 44 1.0 
17 18 2.0 45 1.0 
18 19 1.0 46 1.0 
19 20 2.0 47 1.0 
20 48 1.0 
21 24 1.0 22 2.0 
22 
23 
24 25 2.0 
25 49 1.0 
26 31 1.0 27 2.0 
27 28 1.0 50 1.0 
28 29 2.0 51 1.0 
29 30 1.0 52 1.0 
30 31 2.0 53 1.0 
31 54 1.0 
32 
33 
34 
35 
36 
37 
38 
39 
40 
41 
42 
43 
44 
45 
46 
47 
48 
49 
50 
51 
52 
53 
54 
