%chk=5_out.chk
%CPU=0-53
%mem=4GB
# opt M062X/6-31+G(d,p) geom=connectivity integral=ultrafine

 ipa_p84

0  1
C          -0.36820        -1.31290        -0.77280
C           0.55910        -0.36930        -1.54090
O           1.84170        -0.30710        -0.91910
C           0.79130        -0.81670        -2.97830
O          -5.48300         0.96590         2.69680
C          -4.45130         0.49900         2.22940
C          -3.52500         1.39540         1.44850
C          -4.10800         2.44980         0.72240
C          -3.33160         3.35270        -0.00770
C          -1.95590         3.18380         0.03340
C          -0.87520         3.97220        -0.62210
N           0.34380         3.35820        -0.22270
C           1.63220         3.82040        -0.63370
C           1.91180         5.18840        -0.56980
C           3.15850         5.65190        -0.98230
C           4.12470         4.75610        -1.44220
C           3.83550         3.39260        -1.49650
C           2.58650         2.91470        -1.10250
C           0.11040         2.25420         0.61610
O           0.95740         1.52290         1.09930
O          -0.97970         4.93640        -1.34640
C          -1.36770         2.15990         0.77130
C          -2.12660         1.24860         1.48660
C          -4.10390        -0.94130         2.41920
C          -3.30290        -1.65230         1.51340
C          -3.05280        -3.00880         1.71120
C          -3.59450        -3.66290         2.81790
C          -4.40380        -2.96380         3.71860
C          -4.66620        -1.61370         3.51520
H          -0.48860        -0.97190         0.26040
H           0.05810        -2.32110        -0.75070
H          -1.35830        -1.36080        -1.24020
H           0.10000         0.63540        -1.56090
H           1.72120         0.07460        -0.03420
H          -0.15310        -0.86970        -3.52870
H           1.26080        -1.80560        -2.98930
H           1.45700        -0.11610        -3.49000
H          -5.18850         2.54340         0.74790
H          -3.77680         4.15820        -0.58180
H           1.15510         5.87760        -0.21490
H           3.37430         6.71510        -0.93930
H           5.09760         5.12050        -1.75850
H           4.58100         2.68970        -1.85580
H           2.36760         1.85460        -1.15730
H          -1.65190         0.46430         2.06490
H          -2.89440        -1.15610         0.64160
H          -2.43670        -3.55140         1.00070
H          -3.39250        -4.71820         2.97690
H          -4.83070        -3.47540         4.57590
H          -5.30470        -1.05580         4.19210

1 2 1.0 30 1.0 31 1.0 32 1.0 
2 3 1.0 4 1.0 33 1.0 
3 34 1.0 
4 35 1.0 36 1.0 37 1.0 
5 6 2.0 
6 7 1.0 24 1.0 
7 23 1.0 8 2.0 
8 9 1.0 38 1.0 
9 10 2.0 39 1.0 
10 11 1.0 22 1.0 
11 12 1.0 21 2.0 
12 13 1.0 19 1.0 
13 18 1.0 14 2.0 
14 15 1.0 40 1.0 
15 16 2.0 41 1.0 
16 17 1.0 42 1.0 
17 18 2.0 43 1.0 
18 44 1.0 
19 22 1.0 20 2.0 
20 
21 
22 23 2.0 
23 45 1.0 
24 29 1.0 25 2.0 
25 26 1.0 46 1.0 
26 27 2.0 47 1.0 
27 28 1.0 48 1.0 
28 29 2.0 49 1.0 
29 50 1.0 
30 
31 
32 
33 
34 
35 
36 
37 
38 
39 
40 
41 
42 
43 
44 
45 
46 
47 
48 
49 
50 
