#Put Keywords Here, check Charge and Multiplicity.

 dmf_p84

0  1
O          -5.48290         3.30670         1.84600
C          -4.87240         2.64470         1.01540
C          -3.40720         2.90850         0.79180
C          -2.94460         4.22290         0.98630
C          -1.60100         4.56090         0.80590
C          -0.73100         3.54070         0.45020
C           0.73310         3.58030         0.16800
N           1.09490         2.24550        -0.15170
C           2.40880         1.83550        -0.52180
C           3.50990         2.29320         0.20780
C           4.78920         1.87630        -0.15160
C           4.97140         1.00260        -1.22360
C           3.86710         0.55220        -1.94720
C           2.58240         0.97060        -1.60580
C          -0.01370         1.37610        -0.07750
O          -0.00170         0.17810        -0.28130
O           1.48150         4.53200         0.19490
C          -1.17450         2.23000         0.29290
C          -2.50490         1.88430         0.45400
C          -5.56470         1.58510         0.21880
C          -5.14080         1.19150        -1.06020
C          -5.86330         0.23820        -1.77560
C          -7.00570        -0.33620        -1.21780
C          -7.43900         0.05710         0.05170
C          -6.72960         1.01990         0.76060
O           1.34850         1.68230         2.37480
C           1.46440         0.69450         3.08730
N           0.43270        -0.01280         3.63230
C          -0.94050         0.37990         3.37630
C           0.65970        -1.15850         4.49230
H          -3.66980         4.97470         1.27950
H          -1.24420         5.57690         0.93570
H           3.36020         2.96770         1.04180
H           5.64360         2.21420         0.42520
H           5.96830         0.65870        -1.47890
H           4.00230        -0.13150        -2.77980
H           1.71920         0.61800        -2.15700
H          -2.82800         0.85750         0.32940
H          -4.26510         1.64730        -1.50890
H          -5.53530        -0.05410        -2.76850
H          -7.56250        -1.08530        -1.77340
H          -8.33150        -0.38580         0.48320
H          -7.05800         1.35320         1.73950
H           2.44700         0.27560         3.36540
H          -0.93080         1.24760         2.71610
H          -1.45180         0.63840         4.31260
H          -1.49420        -0.43820         2.89790
H           1.72910        -1.32310         4.63620
H           0.20340        -0.99840         5.47810
H           0.21950        -2.06730         4.06060

1 2 2.0 
2 3 1.0 20 1.0 
3 19 1.0 4 2.0 
4 5 1.0 31 1.0 
5 6 2.0 32 1.0 
6 7 1.0 18 1.0 
7 8 1.0 17 2.0 
8 9 1.0 15 1.0 
9 14 1.0 10 2.0 
10 11 1.0 33 1.0 
11 12 2.0 34 1.0 
12 13 1.0 35 1.0 
13 14 2.0 36 1.0 
14 37 1.0 
15 18 1.0 16 2.0 
16 
17 
18 19 2.0 
19 38 1.0 
20 25 1.0 21 2.0 
21 22 1.0 39 1.0 
22 23 2.0 40 1.0 
23 24 1.0 41 1.0 
24 25 2.0 42 1.0 
25 43 1.0 
26 27 2.0 
27 28 1.0 44 1.0 
28 29 1.0 30 1.0 
29 45 1.0 46 1.0 47 1.0 
30 48 1.0 49 1.0 50 1.0 
31 
32 
33 
34 
35 
36 
37 
38 
39 
40 
41 
42 
43 
44 
45 
46 
47 
48 
49 
50 
