#Put Keywords Here, check Charge and Multiplicity.

 meph_p84

0  1
C           3.65550         4.17810        -2.16000
O           2.30580         3.76200        -2.03710
O          -3.60400        -1.99730        -1.87240
C          -3.84590        -1.10830        -1.06530
C          -2.74750        -0.15250        -0.68040
C          -2.99680         1.20250        -0.39930
C          -1.95400         2.09370        -0.11980
C          -0.66730         1.58260        -0.11460
C           0.62790         2.26720         0.13970
N           1.62310         1.28230         0.00850
C           3.01970         1.51940         0.15830
C           3.47370         2.35780         1.18110
C           4.84120         2.58130         1.32940
C           5.75480         1.96260         0.47580
C           5.29190         1.12540        -0.54040
C           3.92710         0.90600        -0.71020
C           1.05940         0.01820        -0.32390
O           1.67560        -1.00870        -0.49870
O           0.80670         3.44250         0.40960
C          -0.41130         0.24170        -0.39770
C          -1.42820        -0.64310        -0.69990
C          -5.20960        -0.96960        -0.46770
C          -5.43290        -0.41040         0.79950
C          -6.72130        -0.36680         1.32980
C          -7.79610        -0.86910         0.59570
C          -7.58010        -1.43400        -0.66470
C          -6.29360        -1.49480        -1.18800
H           3.76710         5.27310        -2.11070
H           4.30770         3.72790        -1.39920
H           4.00840         3.85130        -3.14300
H           1.99570         4.00980        -1.15410
H          -4.01830         1.56680        -0.42020
H          -2.13720         3.14340         0.08230
H           2.76280         2.83470         1.84410
H           5.19060         3.23670         2.12150
H           6.81980         2.13430         0.59940
H           5.99480         0.64530        -1.21420
H           3.56560         0.26410        -1.50240
H          -1.23340        -1.67970        -0.95050
H          -4.59880        -0.03490         1.38240
H          -6.88500         0.05570         2.31660
H          -8.80050        -0.82730         1.00700
H          -8.41580        -1.83050        -1.23340
H          -6.10040        -1.94700        -2.15510

1 2 1.0 28 1.0 29 1.0 30 1.0 
2 31 1.0 
3 4 2.0 
4 5 1.0 22 1.0 
5 21 1.0 6 2.0 
6 7 1.0 32 1.0 
7 8 2.0 33 1.0 
8 9 1.0 20 1.0 
9 10 1.0 19 2.0 
10 11 1.0 17 1.0 
11 16 1.0 12 2.0 
12 13 1.0 34 1.0 
13 14 2.0 35 1.0 
14 15 1.0 36 1.0 
15 16 2.0 37 1.0 
16 38 1.0 
17 20 1.0 18 2.0 
18 
19 
20 21 2.0 
21 39 1.0 
22 27 1.0 23 2.0 
23 24 1.0 40 1.0 
24 25 2.0 41 1.0 
25 26 1.0 42 1.0 
26 27 2.0 43 1.0 
27 44 1.0 
28 
29 
30 
31 
32 
33 
34 
35 
36 
37 
38 
39 
40 
41 
42 
43 
44 
